943.548828125 294.48468017578125 3.261615347582847e-06
673 296 0 0 3
880 296 0 0 3
1090 296 0 1 3
1303 296 0 1 3
1521 296 0 1 3
1743 296 0 1 3
1969 296 0 2 3
2200 296 0 3 2
2436 298 0 5 0
2679 300 0 5 -2
2928 301 0 5 -3
3184 303 0 5 -4
3447 304 0 5 -5
3718 305 0 5 -5
3996 306 0 6 -6
4282 307 0 7 -7
4578 308 0 8 -7
4883 309 0 9 -8
5198 311 0 10 -9
5525 312 0 12 -10
5863 313 0 14 -10
6213 314 0 15 -10
6577 316 0 15 -10
6956 317 0 16 -10
7351 318 0 17 -10
7764 319 0 17 -10
8196 320 0 18 -11
8649 321 0 20 -11
9127 322 0 21 -12
9633 323 0 23 -13
10169 325 0 24 -12
10743 328 0 25 -12
11364 332 0 24 -11
12046 340 0 22 -9
12806 351 0 18 -8
13672 366 0 14 -7
14687 388 0 9 -5
15906 409 0 7 -3
17423 438 0 4 -4
19430 477 0 0 -2
